*Heading
** Job name: Cube_Test Model name: Cube
** Generated by: Abaqus/CAE 6.13-1
*Preprint, echo=NO, model=NO, history=NO, contact=NO
**
** PARTS
**
*Part, name=Part-2
*Node
      1,          -5.,          -5.,          10.
      2,          -5.,           5.,          10.
      3,          -5.,          -5.,           0.
      4,          -5.,           5.,           0.
      5,           5.,          -5.,          10.
      6,           5.,           5.,          10.
      7,           5.,          -5.,           0.
      8,           5.,           5.,           0.
*Element, type=C3D8R
1, 5, 6, 8, 7, 1, 2, 4, 3
*Nset, nset=Body, generate
 1,  8,  1
*Elset, elset=Body
 1,
** Section: Section-2
*Solid Section, elset=Body, material=HyperElastic
,
*End Part
**  
**
** ASSEMBLY
**
*Assembly, name=Assembly
**  
*Instance, name=Part-2-1, part=Part-2
*End Instance
**  
*Nset, nset=Bot, instance=Part-2-1
 3, 4, 7, 8
*Elset, elset=Bot, instance=Part-2-1
 1,
*Nset, nset=Top, instance=Part-2-1
 1, 2, 5, 6
*Elset, elset=Top, instance=Part-2-1
 1,
*Elset, elset=_Top_S3, internal, instance=Part-2-1
 1,
*Surface, type=ELEMENT, name=Top
_Top_S3, S3
*End Assembly
** 
** MATERIALS
** 
*Material, name=Elastic
*Elastic
2000., 0.3
*Material, name=HyperElastic
*Hyperelastic, neo hooke
 384.615, 0.0012
** ----------------------------------------------------------------
** 
** STEP: Step-1
** 
*Step, name=Step-1, nlgeom=YES
*Static, direct
0.5, 1., 
** 
** BOUNDARY CONDITIONS
** 
** Name: Bottom Type: Symmetry/Antisymmetry/Encastre
*Boundary
Bot, ENCASTRE
** 
** LOADS
** 
** Name: Fcos   Type: Surface traction
*Dsload, follower=NO, constant resultant=YES
Top, TRVEC, 75., 0., 0., 1.
** 
** OUTPUT REQUESTS
** 
*Restart, write, frequency=0
** 
** FIELD OUTPUT: F-Output-1
** 
*Output, field
*Node Output
CF, RF, U, UR, UT
*Element Output, directions=YES
LE, PE, PEEQ, PEMAG, S
** 
** HISTORY OUTPUT: H-Output-1
** 
*Output, history, variable=PRESELECT
*End Step
