*Heading
** Job name: Cube_h2 Model name: Cube
** Generated by: Abaqus/CAE 6.13-1
*Preprint, echo=NO, model=NO, history=NO, contact=NO
**
** PARTS
**
*Part, name=Part-2
*Node
      1,          -5.,          -5.,          10.
      2,          -5.,          -3.,          10.
      3,          -5.,          -1.,          10.
      4,          -5.,           1.,          10.
      5,          -5.,           3.,          10.
      6,          -5.,           5.,          10.
      7,          -5.,          -5.,           8.
      8,          -5.,          -3.,           8.
      9,          -5.,          -1.,           8.
     10,          -5.,           1.,           8.
     11,          -5.,           3.,           8.
     12,          -5.,           5.,           8.
     13,          -5.,          -5.,           6.
     14,          -5.,          -3.,           6.
     15,          -5.,          -1.,           6.
     16,          -5.,           1.,           6.
     17,          -5.,           3.,           6.
     18,          -5.,           5.,           6.
     19,          -5.,          -5.,           4.
     20,          -5.,          -3.,           4.
** ... 196 like lines cut
*Element, type=C3D8
  1,  37,  38,  44,  43,   1,   2,   8,   7
  2,  38,  39,  45,  44,   2,   3,   9,   8
  3,  39,  40,  46,  45,   3,   4,  10,   9
  4,  40,  41,  47,  46,   4,   5,  11,  10
  5,  41,  42,  48,  47,   5,   6,  12,  11
  6,  43,  44,  50,  49,   7,   8,  14,  13
  7,  44,  45,  51,  50,   8,   9,  15,  14
  8,  45,  46,  52,  51,   9,  10,  16,  15
  9,  46,  47,  53,  52,  10,  11,  17,  16
 10,  47,  48,  54,  53,  11,  12,  18,  17
 11,  49,  50,  56,  55,  13,  14,  20,  19
 12,  50,  51,  57,  56,  14,  15,  21,  20
 13,  51,  52,  58,  57,  15,  16,  22,  21
 14,  52,  53,  59,  58,  16,  17,  23,  22
 15,  53,  54,  60,  59,  17,  18,  24,  23
 16,  55,  56,  62,  61,  19,  20,  26,  25
 17,  56,  57,  63,  62,  20,  21,  27,  26
 18,  57,  58,  64,  63,  21,  22,  28,  27
 19,  58,  59,  65,  64,  22,  23,  29,  28
 20,  59,  60,  66,  65,  23,  24,  30,  29
** ... 105 like lines cut
*Nset, nset=Body, generate
   1,  216,    1
*Elset, elset=Body, generate
   1,  125,    1
** Section: Section-2
*Solid Section, elset=Body, material=HyperElastic
,
*End Part
**  
**
** ASSEMBLY
**
*Assembly, name=Assembly
**  
*Instance, name=Part-2-1, part=Part-2
*End Instance
**  
*Nset, nset=Bot, instance=Part-2-1
  31,  32,  33,  34,  35,  36,  67,  68,  69,  70,  71,  72, 103, 104, 105, 106
 107, 108, 139, 140, 141, 142, 143, 144, 175, 176, 177, 178, 179, 180, 211, 212
 213, 214, 215, 216
*Elset, elset=Bot, instance=Part-2-1
  21,  22,  23,  24,  25,  46,  47,  48,  49,  50,  71,  72,  73,  74,  75,  96
  97,  98,  99, 100, 121, 122, 123, 124, 125
*Nset, nset=Lft, instance=Part-2-1, generate
   1,  211,    6
*Elset, elset=Lft, instance=Part-2-1, generate
   1,  121,    5
*Nset, nset=Top, instance=Part-2-1
   1,   2,   3,   4,   5,   6,  37,  38,  39,  40,  41,  42,  73,  74,  75,  76
  77,  78, 109, 110, 111, 112, 113, 114, 145, 146, 147, 148, 149, 150, 181, 182
 183, 184, 185, 186
*Elset, elset=Top, instance=Part-2-1
   1,   2,   3,   4,   5,  26,  27,  28,  29,  30,  51,  52,  53,  54,  55,  76
  77,  78,  79,  80, 101, 102, 103, 104, 105
*Nset, nset=bck, instance=Part-2-1, generate
  1,  36,   1
*Elset, elset=bck, instance=Part-2-1, generate
  1,  25,   1
*Elset, elset=_Top_S3, internal, instance=Part-2-1
   1,   2,   3,   4,   5,  26,  27,  28,  29,  30,  51,  52,  53,  54,  55,  76
  77,  78,  79,  80, 101, 102, 103, 104, 105
*Surface, type=ELEMENT, name=Top
_Top_S3, S3
*End Assembly
** 
** MATERIALS
** 
*Material, name=Elastic
*Elastic
2000., 0.3
*Material, name=HyperElastic
*Hyperelastic, neo hooke
 2.08333, 0.36
** ----------------------------------------------------------------
** 
** STEP: Step-1
** 
*Step, name=Step-1, nlgeom=YES
*Static, direct
0.2, 1., 
** 
** BOUNDARY CONDITIONS
** 
** Name: Bottom Type: Symmetry/Antisymmetry/Encastre
*Boundary
Bot, ENCASTRE
** 
** LOADS
** 
** Name: Fcos   Type: Surface traction
*Dsload, follower=NO, constant resultant=YES
Top, TRVEC, 5., 0., 0., 1.
** 
** OUTPUT REQUESTS
** 
*Restart, write, frequency=0
** 
** FIELD OUTPUT: F-Output-1
** 
*Output, field
*Node Output
CF, RF, U, UR, UT
*Element Output, directions=YES
LE, PE, PEEQ, PEMAG, S
** 
** HISTORY OUTPUT: H-Output-1
** 
*Output, history, variable=PRESELECT
*End Step
